# File generated by Flopy version 3.3.6 on 07/16/2022 at 09:59:49.
BEGIN options
  PRINT_FLOWS
  SAVE_FLOWS
  NEWTON
END options

BEGIN packages
  DIS6  gwf.dis  dis
  IC6  gwf.ic  ic
  NPF6  gwf.npf  npf
  CHD6  gwf.chd  chd_0
  OC6  gwf.oc  oc
  STO6  gwf.sto  sto
  WEL6  gwf.wel  wel-1
  API6  gwf.api  mar
END packages

