# File generated by Flopy version 3.3.6 on 07/16/2022 at 09:59:49.
BEGIN options
  DIGITS  9
END options

BEGIN continuous  FILEOUT  chd.csv
  chd  CHD  chd
END continuous  FILEOUT  chd.csv

