# File generated by Flopy version 3.3.6 on 07/16/2022 at 09:59:49.
BEGIN options
  DIGITS  9
  PRINT_INPUT
END options

BEGIN continuous  FILEOUT  wel.csv
  wel  WEL  wel
END continuous  FILEOUT  wel.csv

