# File generated by Flopy version 3.3.6 on 07/17/2022 at 17:08:28.
BEGIN options
  DIGITS  9
  PRINT_INPUT
END options

BEGIN continuous  FILEOUT  wel.csv
  wel  WEL  wel
END continuous  FILEOUT  wel.csv

