# File generated by Flopy version 3.3.6 on 07/17/2022 at 17:08:28.
BEGIN options
  BOUNDNAMES
  OBS6  FILEIN  gwf.chd.obs
END options

BEGIN dimensions
  MAXBOUND  30
END dimensions

BEGIN period  1
  1 1 1       0.00000000  chd
  1 1 10       0.00000000  chd
  1 2 1       0.00000000  chd
  1 2 10       0.00000000  chd
  1 3 1       0.00000000  chd
  1 3 10       0.00000000  chd
  1 4 1       0.00000000  chd
  1 4 10       0.00000000  chd
  1 5 1       0.00000000  chd
  1 5 10       0.00000000  chd
  1 6 1       0.00000000  chd
  1 6 10       0.00000000  chd
  1 7 1       0.00000000  chd
  1 7 10       0.00000000  chd
  1 8 1       0.00000000  chd
  1 8 10       0.00000000  chd
  1 9 1       0.00000000  chd
  1 9 10       0.00000000  chd
  1 10 1       0.00000000  chd
  1 10 10       0.00000000  chd
  1 11 1       0.00000000  chd
  1 11 10       0.00000000  chd
  1 12 1       0.00000000  chd
  1 12 10       0.00000000  chd
  1 13 1       0.00000000  chd
  1 13 10       0.00000000  chd
  1 14 1       0.00000000  chd
  1 14 10       0.00000000  chd
  1 15 1       0.00000000  chd
  1 15 10       0.00000000  chd
END period  1

BEGIN period  2
END period  2

