# File generated by Flopy version 3.3.6 on 07/17/2022 at 17:08:28.
BEGIN griddata
  strt
    CONSTANT      10.00000000
END griddata

