# File generated by Flopy version 3.3.6 on 07/16/2022 at 15:08:32.
BEGIN options
END options

BEGIN dimensions
  NLAY  1
  NROW  15
  NCOL  10
END dimensions

BEGIN griddata
  delr
    CONSTANT     100.00000000
  delc
    CONSTANT     100.00000000
  top
    CONSTANT       1.00000000
  botm
    CONSTANT     -10.00000000
END griddata

