# File generated by Flopy version 3.3.6 on 07/16/2022 at 15:08:32.
BEGIN griddata
  strt
    CONSTANT       1.00000000
END griddata

