# File generated by Flopy version 3.3.6 on 07/16/2022 at 09:59:49.
BEGIN options
END options

BEGIN dimensions
  MAXBOUND  150
END dimensions

