# File generated by Flopy version 3.3.6 on 07/16/2022 at 15:08:32.
BEGIN options
  DIGITS  9
END options

BEGIN continuous  FILEOUT  drn.surf.csv
  surf  DRN  surf
END continuous  FILEOUT  drn.surf.csv

