# File generated by Flopy version 3.3.6 on 07/17/2022 at 17:08:28.
BEGIN options
END options

BEGIN dimensions
  NLAY  1
  NROW  15
  NCOL  10
END dimensions

BEGIN griddata
  delr
    CONSTANT     100.00000000
  delc
    CONSTANT     100.00000000
  top
    CONSTANT      10.00000000
  botm
    CONSTANT     -10.00000000
END griddata

