# File generated by Flopy version 3.3.6 on 07/17/2022 at 17:08:28.
BEGIN options
END options

BEGIN dimensions
  MAXBOUND  150
END dimensions

