# File generated by Flopy version 3.3.6 on 07/16/2022 at 09:59:49.
BEGIN griddata
  strt
    CONSTANT      10.00000000
END griddata

