# File generated by Flopy version 3.3.6 on 07/16/2022 at 15:08:32.
BEGIN options
  SAVE_FLOWS
  SAVE_SPECIFIC_DISCHARGE
END options

BEGIN griddata
  icelltype
    CONSTANT  1
  k
    CONSTANT       1.00000000
  k33
    CONSTANT       1.00000000
END griddata

