# File generated by Flopy version 3.3.6 on 07/17/2022 at 17:08:28.
BEGIN options
  BUDGET  FILEOUT  gwf.cbb
  HEAD  FILEOUT  gwf.hds
END options

BEGIN period  1
  SAVE  HEAD  ALL
  SAVE  BUDGET  ALL
  PRINT  HEAD  ALL
  PRINT  BUDGET  ALL
END period  1

