# File generated by Flopy version 3.3.6 on 07/16/2022 at 09:59:49.
BEGIN options
  BOUNDNAMES
  AUTO_FLOW_REDUCE       0.10000000
  AUTO_FLOW_REDUCE_CSV  FILEOUT  hd1h_well_reduce.csv
  OBS6  FILEIN  gwf.wel.obs
END options

BEGIN dimensions
  MAXBOUND  1
END dimensions

BEGIN period  2
  1 8 6    -270.00000000  wel
END period  2

