# File generated by Flopy version 3.3.6 on 07/16/2022 at 15:08:32.
BEGIN options
END options

BEGIN dimensions
  MAXBOUND  150
END dimensions

