# File generated by Flopy version 3.3.6 on 07/16/2022 at 09:59:49.
BEGIN options
  CONTINUE
END options

BEGIN timing
  TDIS6  model.tdis
END timing

BEGIN models
  gwf6  gwf.nam  gwf
END models

BEGIN exchanges
END exchanges

BEGIN solutiongroup  1
  ims6  model.ims  gwf
END solutiongroup  1

