# File generated by Flopy version 3.3.6 on 07/16/2022 at 15:08:32.
BEGIN options
  TIME_UNITS  days
END options

BEGIN dimensions
  NPER  2
END dimensions

BEGIN perioddata
       1.00000000  1       1.00000000
    1000.00000000  100       1.00000000
END perioddata

